F5|F5|mol2|1|dock14
  PyMOL3.1          3D                             0

 17 18  0  0  1  0  0  0  0  0999 V2000
   58.9014   30.9134   31.2386 H   0  0  0  0  0  0  0  0  0  0  0  0
   58.8827   31.2547   29.5229 H   0  0  0  0  0  0  0  0  0  0  0  0
   58.4301   30.8830   30.3458 N   0  0  0  0  0  0  0  0  0  0  0  0
   57.0962   30.3024   30.2448 C   0  0  2  0  0  0  0  0  0  0  0  0
   56.0181   31.3640   30.5478 C   0  0  0  0  0  0  0  0  0  0  0  0
   56.3918   32.3199   31.6707 C   0  0  0  0  0  0  0  0  0  0  0  0
   55.9077   32.1052   32.9792 C   0  0  0  0  0  0  0  0  0  0  0  0
   56.2612   32.9884   34.0177 C   0  0  0  0  0  0  0  0  0  0  0  0
   57.0994   34.0885   33.7534 C   0  0  0  0  0  0  0  0  0  0  0  0
   57.5841   34.3058   32.4493 C   0  0  0  0  0  0  0  0  0  0  0  0
   57.2303   33.4243   31.4096 C   0  0  0  0  0  0  0  0  0  0  0  0
   56.9307   29.0893   31.1533 C   0  0  0  0  0  0  0  0  0  0  0  0
   56.9434   29.2519   32.5551 C   0  0  0  0  0  0  0  0  0  0  0  0
   56.7939   28.1359   33.4016 C   0  0  0  0  0  0  0  0  0  0  0  0
   56.6340   26.8497   32.8514 C   0  0  0  0  0  0  0  0  0  0  0  0
   56.6241   26.6795   31.4538 C   0  0  0  0  0  0  0  0  0  0  0  0
   56.7729   27.7951   30.6073 C   0  0  0  0  0  0  0  0  0  0  0  0
  1  3  1  0  0  0  0
  2  3  1  0  0  0  0
  3  4  1  0  0  0  0
  4  5  1  0  0  0  0
  4 12  1  0  0  0  0
  5  6  1  0  0  0  0
  6  7  2  0  0  0  0
  6 11  1  0  0  0  0
  7  8  1  0  0  0  0
  8  9  2  0  0  0  0
  9 10  1  0  0  0  0
 10 11  2  0  0  0  0
 12 13  2  0  0  0  0
 12 17  1  0  0  0  0
 13 14  1  0  0  0  0
 14 15  2  0  0  0  0
 15 16  1  0  0  0  0
 16 17  2  0  0  0  0
M  END
$$$$
